Version 4
SHEET 1 1096 680
WIRE -48 -544 -112 -544
WIRE -112 -528 -112 -544
WIRE -48 -384 -112 -384
WIRE -112 -368 -112 -384
WIRE 720 -192 608 -192
WIRE 896 -192 784 -192
WIRE 608 -96 608 -192
WIRE 704 -96 608 -96
WIRE 896 -96 896 -192
WIRE 896 -96 784 -96
WIRE -80 -64 -112 -64
WIRE 352 -64 288 -64
WIRE 352 -48 352 -64
WIRE -112 -32 -112 -64
WIRE 288 -32 288 -64
WIRE 288 32 192 32
WIRE 496 32 288 32
WIRE 608 32 608 -96
WIRE 608 32 576 32
WIRE 672 32 608 32
WIRE 672 48 672 32
WIRE 704 48 672 48
WIRE 896 64 896 -96
WIRE 896 64 768 64
WIRE 960 64 896 64
WIRE 704 80 672 80
WIRE 288 96 192 96
WIRE 496 96 288 96
WIRE 672 96 672 80
WIRE 672 96 576 96
WIRE 752 112 752 96
FLAG 720 32 +4.5
FLAG 720 96 0
FLAG 752 112 +4.5
FLAG -112 -448 0
FLAG -112 -288 0
FLAG -48 -544 00
FLAG -48 -384 11
FLAG 960 64 Vout
FLAG -112 48 0
FLAG -80 -64 IF
FLAG 192 32 IF
FLAG -112 240 0
FLAG -112 160 +4.5
FLAG -272 272 0
FLAG -272 192 +2.25
FLAG 192 96 +2.25
FLAG 352 -48 0
FLAG 288 160 0
SYMBOL res 800 -112 R90
WINDOW 0 0 56 VBottom 2
WINDOW 3 32 56 VTop 2
SYMATTR InstName R5
SYMATTR Value 5.1k
SYMBOL res 592 16 R90
WINDOW 0 13 112 VBottom 2
WINDOW 3 24 58 VTop 2
SYMATTR InstName R6
SYMATTR Value 52
SYMBOL res 592 80 R90
WINDOW 0 46 3 VBottom 2
WINDOW 3 32 56 VTop 2
SYMATTR InstName R7
SYMATTR Value 52
SYMBOL OpAmps\\ADA4805 736 64 R0
WINDOW 3 64 27 Left 2
SYMATTR InstName U1
SYMBOL voltage -112 -544 R0
WINDOW 0 -40 11 Left 2
WINDOW 123 0 0 Left 0
WINDOW 39 -40 39 Left 2
SYMATTR InstName V1
SYMATTR SpiceLine Rser=50
SYMATTR Value SINE(2.25 10u {FREQ})
SYMBOL voltage -112 -384 R0
WINDOW 0 -40 11 Left 2
WINDOW 123 0 0 Left 0
WINDOW 39 -40 39 Left 2
SYMATTR InstName V3
SYMATTR SpiceLine Rser=50
SYMATTR Value SINE(2.25 10u {FREQ} 0 0 180)
SYMBOL voltage -112 -48 R0
WINDOW 3 24 152 Left 2
WINDOW 123 24 124 Left 2
WINDOW 39 0 0 Left 0
SYMATTR Value 2.25
SYMATTR InstName V2
SYMBOL voltage -112 144 R0
WINDOW 123 0 0 Left 0
WINDOW 39 0 0 Left 0
SYMATTR InstName V4
SYMATTR Value 4.5
SYMBOL cap 784 -208 R90
WINDOW 0 0 32 VBottom 2
WINDOW 3 32 32 VTop 2
SYMATTR InstName C1
SYMATTR Value 270p
SYMBOL voltage -272 176 R0
WINDOW 123 0 0 Left 0
WINDOW 39 0 0 Left 0
SYMATTR InstName V5
SYMATTR Value 2.25
SYMBOL cap 272 96 R0
SYMATTR InstName C2
SYMATTR Value 37.6n
SYMBOL cap 272 -32 R0
SYMATTR InstName C3
SYMATTR Value 37.6n
TEXT -176 552 Left 2 !.param C_Sample=.0155u\n.meas AC V-find FIND V(Vout) AT 48k
TEXT -176 496 Left 2 !.param FREQ=48k\n.param SW_time=1/FREQ
TEXT -176 344 Left 2 !;.ac dec 10000 1k 60Meg
TEXT 480 360 Left 2 ;Without filter capacitor: \nv-find: v(vout)=(-62.9407dB,111.894°) at 48000\nWith 27p capacitor:\nv-find: v(vout)=(-65.1172dB,106.836°) at 48000
TEXT -176 376 Left 2 !.noise V(Vout) V2 dec 100 1k 60Meg
