Version 4
SHEET 1 2500 680
WIRE -1696 -640 -1760 -640
WIRE -1760 -608 -1760 -640
WIRE -1760 -512 -1760 -528
WIRE -1680 -464 -1760 -464
WIRE -1760 -400 -1760 -464
WIRE -624 -352 -1104 -352
WIRE -576 -352 -624 -352
WIRE -464 -352 -512 -352
WIRE -96 -352 -464 -352
WIRE 48 -352 0 -352
WIRE 416 -352 336 -352
WIRE 560 -352 480 -352
WIRE 720 -352 640 -352
WIRE 832 -352 720 -352
WIRE 912 -352 832 -352
WIRE 1056 -352 976 -352
WIRE 1184 -352 1136 -352
WIRE 1296 -352 1184 -352
WIRE 1376 -352 1296 -352
WIRE 2000 -352 1968 -352
WIRE 2112 -352 2080 -352
WIRE 0 -320 0 -352
WIRE -1232 -304 -1232 -368
WIRE -624 -304 -624 -352
WIRE -464 -304 -464 -352
WIRE 720 -304 720 -352
WIRE 832 -304 832 -352
WIRE 1184 -304 1184 -352
WIRE 1296 -304 1296 -352
WIRE -1056 -272 -1104 -272
WIRE -96 -272 -208 -272
WIRE -1056 -256 -1056 -272
WIRE -1664 -224 -1760 -224
WIRE 2032 -224 2032 -240
WIRE 0 -208 0 -240
WIRE 1856 -208 1808 -208
WIRE 1968 -208 1968 -352
WIRE 1968 -208 1936 -208
WIRE 2016 -208 1968 -208
WIRE -1232 -192 -1232 -224
WIRE -624 -192 -624 -240
WIRE -576 -192 -624 -192
WIRE -464 -192 -464 -240
WIRE -464 -192 -512 -192
WIRE 2112 -192 2112 -352
WIRE 2112 -192 2080 -192
WIRE 2192 -192 2112 -192
WIRE 720 -176 720 -240
WIRE 720 -176 384 -176
WIRE 832 -176 832 -224
WIRE 832 -176 720 -176
WIRE 1184 -176 1184 -240
WIRE 1184 -176 832 -176
WIRE 1296 -176 1296 -224
WIRE 1296 -176 1184 -176
WIRE 2016 -176 1984 -176
WIRE -1760 -160 -1760 -224
WIRE -1104 -144 -1104 -192
WIRE -464 -144 -464 -192
WIRE -464 -144 -1104 -144
WIRE 384 -144 384 -176
WIRE 1984 -144 1984 -176
WIRE 2032 -144 2032 -160
WIRE 2064 -128 2064 -160
WIRE -624 -96 -624 -192
WIRE -96 -96 -96 -192
WIRE -96 -96 -624 -96
FLAG -1056 -256 0
FLAG -1232 -192 0
FLAG -1232 -368 V_RF
FLAG 0 -128 0
FLAG -1760 -320 0
FLAG -1680 -464 V_LO
FLAG -1760 -80 0
FLAG -208 -272 V_LO
FLAG 48 -352 V_IF
FLAG 384 -144 0
FLAG 1376 -352 V_BPF2
FLAG -1760 -512 0
FLAG -1696 -640 4.5V
FLAG 2032 -144 0
FLAG 2032 -240 4.5V
FLAG 2064 -128 4.5V
FLAG 1984 -144 0
FLAG -1664 -224 V_RF
FLAG 336 -352 V_IF
FLAG 1808 -208 V_BPF2
FLAG 2192 -192 Out
SYMBOL diode -608 -240 R180
WINDOW 3 24 0 Left 2
WINDOW 0 24 64 Left 2
SYMATTR Value DI_1N5711
SYMATTR InstName D1
SYMBOL diode -576 -336 R270
WINDOW 0 32 32 VTop 2
WINDOW 3 94 30 VBottom 2
SYMATTR InstName D2
SYMATTR Value DI_1N5711
SYMBOL diode -480 -304 R0
SYMATTR InstName D3
SYMATTR Value DI_1N5711
SYMBOL diode -512 -208 R90
WINDOW 0 0 32 VBottom 2
WINDOW 3 32 32 VTop 2
SYMATTR InstName D4
SYMATTR Value DI_1N5711
SYMBOL ind2 -1216 -208 R180
WINDOW 0 36 80 Left 2
WINDOW 3 36 40 Left 2
SYMATTR InstName L1
SYMATTR Value 1µ
SYMATTR Type ind
SYMBOL ind2 -1088 -256 R180
WINDOW 0 36 80 Left 2
WINDOW 3 36 40 Left 2
SYMATTR InstName L2
SYMATTR Value 0.5µ
SYMATTR Type ind
SYMBOL ind2 -1088 -176 R180
WINDOW 0 36 80 Left 2
WINDOW 3 36 40 Left 2
SYMATTR InstName L3
SYMATTR Value 0.5µ
SYMATTR Type ind
SYMBOL ind2 -80 -256 R180
WINDOW 0 36 80 Left 2
WINDOW 3 36 40 Left 2
SYMATTR InstName L4
SYMATTR Value 0.5µ
SYMATTR Type ind
SYMBOL ind2 -80 -176 R180
WINDOW 0 36 80 Left 2
WINDOW 3 36 40 Left 2
SYMATTR InstName L5
SYMATTR Value 0.5µ
SYMATTR Type ind
SYMBOL ind2 16 -224 R180
WINDOW 0 36 80 Left 2
WINDOW 3 36 40 Left 2
SYMATTR InstName L6
SYMATTR Value 1µ
SYMATTR Type ind
SYMBOL voltage -1760 -416 R0
WINDOW 123 0 0 Left 0
WINDOW 39 24 124 Left 2
SYMATTR SpiceLine Rser=5
SYMATTR InstName V5
SYMATTR Value SINE(0 1 100Meg 0 0)
SYMBOL voltage -1760 -176 R0
WINDOW 123 0 0 Left 0
WINDOW 39 -73 154 Left 2
WINDOW 3 -74 132 Left 2
SYMATTR SpiceLine Rser=5
SYMATTR Value SINE(2.25 0.00002 120Meg 0 0)
SYMATTR InstName V6
SYMBOL cap 480 -368 R90
WINDOW 0 0 32 VBottom 2
WINDOW 3 32 32 VTop 2
SYMATTR InstName C2
SYMATTR Value 619p
SYMBOL cap 912 -336 R270
WINDOW 0 32 32 VTop 2
WINDOW 3 0 32 VBottom 2
SYMATTR InstName C4
SYMATTR Value 402p
SYMBOL ind 544 -336 R270
WINDOW 0 32 56 VTop 2
WINDOW 3 5 56 VBottom 2
SYMATTR InstName L8
SYMATTR Value 160n
SYMBOL ind 816 -320 R0
SYMATTR InstName L9
SYMATTR Value 1µ
SYMBOL ind 1040 -336 R270
WINDOW 0 32 56 VTop 2
WINDOW 3 5 56 VBottom 2
SYMATTR InstName L10
SYMATTR Value 240n
SYMBOL cap 704 -304 R0
SYMATTR InstName C3
SYMATTR Value 97.6p
SYMBOL OpAmps\\ADA4805 2048 -192 R0
SYMATTR InstName U1
SYMBOL voltage -1760 -624 R0
WINDOW 123 0 0 Left 0
WINDOW 39 24 124 Left 2
SYMATTR SpiceLine Rser=5
SYMATTR InstName V1
SYMATTR Value 4.5
SYMBOL res 1952 -224 R90
WINDOW 0 0 56 VBottom 2
WINDOW 3 32 56 VTop 2
SYMATTR InstName R2
SYMATTR Value 51
SYMBOL res 2096 -368 R90
WINDOW 0 0 56 VBottom 2
WINDOW 3 32 56 VTop 2
SYMATTR InstName R3
SYMATTR Value 210k
SYMBOL voltage 0 -224 R0
WINDOW 123 0 0 Left 0
WINDOW 39 42 84 Left 2
WINDOW 3 51 46 Left 2
SYMATTR SpiceLine Rser=5
SYMATTR Value 2.25
SYMATTR InstName V2
SYMBOL cap 1168 -304 R0
SYMATTR InstName C1
SYMATTR Value 63.4p
SYMBOL ind 1280 -320 R0
SYMATTR InstName L7
SYMATTR Value 1.5µ
TEXT -1832 40 Left 2 !.tran 1u
TEXT -1896 -776 Left 2 !*SRC=1N5711;DI_1N5711;Diodes;Si;  70.0V  15.0mA  1.00ns   Diodes Inc. -\n.MODEL DI_1N5711 D  ( IS=315n RS=2.80 BV=70.0 IBV=10.0u\n+ CJO=2.00p  M=0.333 N=2.03 TT=1.44n )
TEXT -1120 -432 Left 2 !K1 L1 L2 L3 1
TEXT -104 -416 Left 2 !K2 L4 L5 L6 1
TEXT -624 -464 Left 2 ;Ring Diode Mixer
TEXT 688 -456 Left 2 ;5-52MHz Chebyshev Bandpass FIlter
TEXT -1304 -560 Left 2 ;Needs a good bandpass filter before the mixer to reduce images
RECTANGLE Normal 1568 -48 208 -480 2
RECTANGLE Normal 160 -48 -1312 -480 2
RECTANGLE Normal -1392 112 -1936 -672 2
RECTANGLE Normal 2432 -48 1616 -480 2
